42
 SCF done        -92.317689318192          0.000053935422; SMILES: C12=C(C(C(C(C(C(C=CC3=C4C5=C(OC6=C5C=CO6)O3)=C4O7)=C7O8)=C8O9)=C9O%10)=C%10C=C2)C=CO1
C           0.30852382227483    2.63370057697714   -1.65640016124936
C           1.42902640588180    1.88371978675686   -1.24631411090834
C           1.58722496689303    1.63566821689929    0.12056187837412
C           2.51652255021425    0.95817700971189    0.96512603003212
C           3.70416274258808    0.18778739237211    1.16333885470977
C           4.86659639140398   -0.49312837926869    0.68602834276408
C           5.72395181992098   -0.91572030228828   -0.38026569698012
C           5.72059133616371   -0.75680672607794   -1.76840023240310
C           6.73051005535213   -1.31152254623737   -2.52407959176449
C           7.73528818057711   -2.02210995509541   -1.87808071247785
C           7.77986466603836   -2.20870449291847   -0.47159741984596
C           8.95487042989305   -2.98266162309659   -0.23730076002593
C           9.49241595440827   -3.18275436776304   -1.49725427286779
O          10.63515343866664   -3.90792692480758   -1.52861398984806
C          10.82258238790054   -4.17706646908356   -0.20914974271334
C           9.85852510990832   -3.65867952413618    0.64198063005083
C          10.27044473904206   -4.06887614793538    1.93787721618990
C          11.41661723642493   -4.77834669321284    1.74367136645285
O          11.77258513700343   -4.85554811597821    0.42475959690091
O           8.80169948122342   -2.63009068610969   -2.50047658289741
C           6.75269327112967   -1.63977589419711    0.26870135281442
O           6.58617918244867   -1.68632639696780    1.63033350088409
C           5.45809176677217   -0.99495699513036    1.83328356504468
O           4.81265446997790   -0.71539354943840    2.98681520985314
C           3.75367387329424    0.00366787428878    2.53873882892131
O           2.73590746348620    0.56839637586727    3.23459271752284
C           2.01122683471289    1.13517443282511    2.24436078800340
O           0.87968353273613    1.84045634311719    2.31185410093772
C           0.60736767981637    2.15656199232497    0.99637948842199
C          -0.49318037443056    2.89598407855128    0.57032487714978
C          -0.64785885338058    3.14034402341691   -0.77758751955955
C           2.13461054314477    1.56847061193566   -2.44192618208999
C           1.41947716785294    2.12769192622231   -3.44803961588464
O           0.31959663076389    2.77220240919043   -3.00128346832934
H           4.92783715880905   -0.20088093304590   -2.23983574412126
H           6.75445105492534   -1.20553528862751   -3.59587350346936
H           9.78858408834305   -3.86745639947090    2.87122907926398
H          12.06819261148141   -5.27295683670465    2.43470241090476
H          -1.20281230011221    3.26379555632979    1.29216591324733
H          -1.48352464389391    3.70723508333376   -1.15252969026609
H           3.04048364765222    1.00636632266000   -2.52469467215749
H           1.58224834266152    2.13960523478368   -4.50836207859737
